L6/1726531/Chaves.dss
! ==========================================================
! CHAVES — geradas de UNSEMT (Line com Switch=Y)
! ==========================================================
! 18 chave(s) omitida(s): os dois PACs fora da rede de MT deste alimentador, o que criaria ilha flutuante — ex.: 1820772017, 1820806369, 608241307
New Line.1752991184 Phases=1 Bus1=node_2078463556.2 Bus2=node_2078463557.2 Switch=Y r1=1e-4 x1=1e-4 r0=1e-4 x0=1e-4 normamps=9999
New Line.1855420249 Phases=1 Bus1=100_1855420273.3 Bus2=100_1855420274.3 Switch=Y r1=1e-4 x1=1e-4 r0=1e-4 x0=1e-4 normamps=9999
New Line.351671124 Phases=1 Bus1=100_1761214160.3 Bus2=100_1761214161.3 Switch=Y r1=1e-4 x1=1e-4 r0=1e-4 x0=1e-4 normamps=9999
New Line.1867426264 Phases=1 Bus1=100_1867426289.3 Bus2=100_1867426288.3 Switch=Y r1=1e-4 x1=1e-4 r0=1e-4 x0=1e-4 normamps=9999
New Line.2314758686 Phases=1 Bus1=node_435265539.3 Bus2=node_2561888037.3 Switch=Y r1=1e-4 x1=1e-4 r0=1e-4 x0=1e-4 normamps=9999
New Line.1855111303 Phases=1 Bus1=node_2176010960.2 Bus2=node_2176010961.2 Switch=Y r1=1e-4 x1=1e-4 r0=1e-4 x0=1e-4 normamps=9999
New Line.2354481789 Phases=1 Bus1=100_2354481814.1 Bus2=100_2354481813.1 Switch=Y r1=1e-4 x1=1e-4 r0=1e-4 x0=1e-4 normamps=9999
New Line.348068771 Phases=1 Bus1=node_1738224278.1 Bus2=node_1738224279.1 Switch=Y r1=1e-4 x1=1e-4 r0=1e-4 x0=1e-4 normamps=9999
New Line.348217705 Phases=1 Bus1=node_543963096.1 Bus2=node_543963097.1 Switch=Y r1=1e-4 x1=1e-4 r0=1e-4 x0=1e-4 normamps=9999
New Line.1511213200 Phases=1 Bus1=100_1511213227.3 Bus2=100_1511213226.3 Switch=Y r1=1e-4 x1=1e-4 r0=1e-4 x0=1e-4 normamps=9999
New Line.1414641149 Phases=1 Bus1=100_1414641180.1 Bus2=100_1414641179.1 Switch=Y r1=1e-4 x1=1e-4 r0=1e-4 x0=1e-4 normamps=9999
New Line.1513227080 Phases=1 Bus1=100_1513227153.2 Bus2=100_1513227152.2 Switch=Y r1=1e-4 x1=1e-4 r0=1e-4 x0=1e-4 normamps=9999
New Line.1338173597 Phases=1 Bus1=node_1633218607.1 Bus2=node_1633218712.1 Switch=Y r1=1e-4 x1=1e-4 r0=1e-4 x0=1e-4 normamps=9999
New Line.1511792899 Phases=1 Bus1=100_1511792919.2 Bus2=100_1511792918.2 Switch=Y r1=1e-4 x1=1e-4 r0=1e-4 x0=1e-4 normamps=9999
New Line.351671566 Phases=1 Bus1=100_2399655234.1 Bus2=100_2399655233.1 Switch=Y r1=1e-4 x1=1e-4 r0=1e-4 x0=1e-4 normamps=9999
New Line.1489863562 Phases=1 Bus1=100_1489863593.2 Bus2=100_1489863592.2 Switch=Y r1=1e-4 x1=1e-4 r0=1e-4 x0=1e-4 normamps=9999
New Line.1529831990 Phases=1 Bus1=100_1529832017.1 Bus2=100_1529832016.1 Switch=Y r1=1e-4 x1=1e-4 r0=1e-4 x0=1e-4 normamps=9999
New Line.1550928400 Phases=1 Bus1=100_1550928430.2 Bus2=100_1550928431.2 Switch=Y r1=1e-4 x1=1e-4 r0=1e-4 x0=1e-4 normamps=9999
New Line.1514858813 Phases=1 Bus1=100_1514858832.1 Bus2=100_1514858831.1 Switch=Y r1=1e-4 x1=1e-4 r0=1e-4 x0=1e-4 normamps=9999
New Line.351671596 Phases=1 Bus1=100_351671609.3 Bus2=100_351671610.3 Switch=Y r1=1e-4 x1=1e-4 r0=1e-4 x0=1e-4 normamps=9999
New Line.1419055437 Phases=1 Bus1=100_1419055463.1 Bus2=100_1419055464.1 Switch=Y r1=1e-4 x1=1e-4 r0=1e-4 x0=1e-4 normamps=9999
New Line.1514880285 Phases=1 Bus1=100_1514880303.1 Bus2=100_1514880304.1 Switch=Y r1=1e-4 x1=1e-4 r0=1e-4 x0=1e-4 normamps=9999
New Line.2359317057 Phases=1 Bus1=node_2498116829.3 Bus2=node_2498116830.3 Switch=Y r1=1e-4 x1=1e-4 r0=1e-4 x0=1e-4 normamps=9999
New Line.2604834961 Phases=1 Bus1=node_2758032050.3 Bus2=node_2758032167.3 Switch=Y r1=1e-4 x1=1e-4 r0=1e-4 x0=1e-4 normamps=9999
New Line.1552620281 Phases=1 Bus1=node_1854948858.1 Bus2=node_1854948859.1 Switch=Y r1=1e-4 x1=1e-4 r0=1e-4 x0=1e-4 normamps=9999
New Line.348725083 Phases=1 Bus1=node_1884662554.1 Bus2=node_1884662555.1 Switch=Y r1=1e-4 x1=1e-4 r0=1e-4 x0=1e-4 normamps=9999
New Line.1398779899 Phases=1 Bus1=node_1693839178.2 Bus2=node_1693839179.2 Switch=Y r1=1e-4 x1=1e-4 r0=1e-4 x0=1e-4 normamps=9999
New Line.1626846505 Phases=3 Bus1=node_1947123319.1.2.3 Bus2=node_1947123320.1.2.3 Switch=Y r1=1e-4 x1=1e-4 r0=1e-4 x0=1e-4 normamps=9999
New Line.1645662674 Phases=1 Bus1=node_1965819121.1 Bus2=node_1965819122.1 Switch=Y r1=1e-4 x1=1e-4 r0=1e-4 x0=1e-4 normamps=9999
New Line.1646628818 Phases=1 Bus1=node_1966725132.2 Bus2=node_1966725133.2 Switch=Y r1=1e-4 x1=1e-4 r0=1e-4 x0=1e-4 normamps=9999
New Line.343682384 Phases=3 Bus1=node_1712696267.1.2.3 Bus2=node_1712696268.1.2.3 Switch=Y r1=1e-4 x1=1e-4 r0=1e-4 x0=1e-4 normamps=9999
New Line.351671694 Phases=3 Bus1=100_1415401297.1.2.3 Bus2=100_1415401298.1.2.3 Switch=Y r1=1e-4 x1=1e-4 r0=1e-4 x0=1e-4 normamps=9999
New Line.1625931716 Phases=1 Bus1=100_1625931746.1 Bus2=100_1625931747.1 Switch=Y r1=1e-4 x1=1e-4 r0=1e-4 x0=1e-4 normamps=9999
New Line.1733290572 Phases=1 Bus1=node_2059261481.2 Bus2=node_2059261482.2 Switch=Y r1=1e-4 x1=1e-4 r0=1e-4 x0=1e-4 normamps=9999
New Line.1685575930 Phases=1 Bus1=node_2010997343.2 Bus2=node_2785187869.2 Switch=Y r1=1e-4 x1=1e-4 r0=1e-4 x0=1e-4 normamps=9999
New Line.1696860601 Phases=3 Bus1=node_2022585963.1.2.3 Bus2=node_2724088852.1.2.3 Switch=Y r1=1e-4 x1=1e-4 r0=1e-4 x0=1e-4 normamps=9999
New Line.1643107855 Phases=1 Bus1=node_1963054098.3 Bus2=node_1963054099.3 Switch=Y r1=1e-4 x1=1e-4 r0=1e-4 x0=1e-4 normamps=9999
New Line.348067921 Phases=1 Bus1=node_2534315362.1 Bus2=node_2534315363.1 Switch=Y r1=1e-4 x1=1e-4 r0=1e-4 x0=1e-4 normamps=9999
New Line.342053205 Phases=1 Bus1=node_535725687.3 Bus2=node_535725688.3 Switch=Y r1=1e-4 x1=1e-4 r0=1e-4 x0=1e-4 normamps=9999
New Line.343680901 Phases=1 Bus1=node_537864008.2 Bus2=node_537864009.2 Switch=Y r1=1e-4 x1=1e-4 r0=1e-4 x0=1e-4 normamps=9999
New Line.343597753 Phases=3 Bus1=node_537623028.1.2.3 Bus2=node_537623029.1.2.3 Switch=Y r1=1e-4 x1=1e-4 r0=1e-4 x0=1e-4 normamps=9999
New Line.347717691 Phases=1 Bus1=node_2534315915.1 Bus2=node_2534315959.1 Switch=Y r1=1e-4 x1=1e-4 r0=1e-4 x0=1e-4 normamps=9999
New Line.342870035 Phases=1 Bus1=node_536913597.1 Bus2=node_536913598.1 Switch=Y r1=1e-4 x1=1e-4 r0=1e-4 x0=1e-4 normamps=9999
New Line.342869801 Phases=1 Bus1=node_536797017.3 Bus2=node_536797018.3 Switch=Y r1=1e-4 x1=1e-4 r0=1e-4 x0=1e-4 normamps=9999
New Line.342055088 Phases=3 Bus1=node_535914743.1.2.3 Bus2=node_535914744.1.2.3 Switch=Y r1=1e-4 x1=1e-4 r0=1e-4 x0=1e-4 normamps=9999
New Line.1824727108 Phases=3 Bus1=node_2196463542.1.2.3 Bus2=node_2196463543.1.2.3 Switch=Y r1=1e-4 x1=1e-4 r0=1e-4 x0=1e-4 normamps=9999
New Line.1824726906 Phases=3 Bus1=node_2196463192.1.2.3 Bus2=node_2196463193.1.2.3 Switch=Y r1=1e-4 x1=1e-4 r0=1e-4 x0=1e-4 normamps=9999
New Line.1824727608 Phases=3 Bus1=100_1824727876.1.2.3 Bus2=100_1824727877.1.2.3 Switch=Y r1=1e-4 x1=1e-4 r0=1e-4 x0=1e-4 normamps=9999
New Line.1824726910 Phases=3 Bus1=node_2196465222.1.2.3 Bus2=node_2196465223.1.2.3 Switch=Y r1=1e-4 x1=1e-4 r0=1e-4 x0=1e-4 normamps=9999
New Line.1796764518 Phases=1 Bus1=node_2120824411.3 Bus2=node_2120824412.3 Switch=Y r1=1e-4 x1=1e-4 r0=1e-4 x0=1e-4 normamps=9999
New Line.1824727055 Phases=1 Bus1=node_2196463444.1 Bus2=node_2196463445.1 Switch=Y r1=1e-4 x1=1e-4 r0=1e-4 x0=1e-4 normamps=9999
New Line.1824727593 Phases=3 Bus1=100_1824727876.1.2.3 Bus2=100_1824727877.1.2.3 Switch=Y r1=1e-4 x1=1e-4 r0=1e-4 x0=1e-4 normamps=9999
New Line.1802715854 Phases=1 Bus1=node_2762416267.2 Bus2=node_2762416312.2 Switch=Y r1=1e-4 x1=1e-4 r0=1e-4 x0=1e-4 normamps=9999
New Line.351671876 Phases=1 Bus1=100_1710785494.3 Bus2=100_1710785493.3 Switch=Y r1=1e-4 x1=1e-4 r0=1e-4 x0=1e-4 normamps=9999
New Line.343682096 Phases=1 Bus1=node_537922820.2 Bus2=node_537922821.2 Switch=Y r1=1e-4 x1=1e-4 r0=1e-4 x0=1e-4 normamps=9999
New Line.340081349 Phases=3 Bus1=node_532949135.1.2.3 Bus2=node_532949136.1.2.3 Switch=Y r1=1e-4 x1=1e-4 r0=1e-4 x0=1e-4 normamps=9999
New Line.342054185 Phases=1 Bus1=node_535912756.3 Bus2=node_535912757.3 Switch=Y r1=1e-4 x1=1e-4 r0=1e-4 x0=1e-4 normamps=9999
New Line.340082540 Phases=3 Bus1=node_534660858.1.2.3 Bus2=node_534660859.1.2.3 Switch=Y r1=1e-4 x1=1e-4 r0=1e-4 x0=1e-4 normamps=9999
New Line.343597763 Phases=3 Bus1=node_537623046.1.2.3 Bus2=node_537623047.1.2.3 Switch=Y r1=1e-4 x1=1e-4 r0=1e-4 x0=1e-4 normamps=9999
New Line.340081942 Phases=3 Bus1=node_534659716.1.2.3 Bus2=node_534659717.1.2.3 Switch=Y r1=1e-4 x1=1e-4 r0=1e-4 x0=1e-4 normamps=9999
New Line.341423184 Phases=1 Bus1=node_535059760.3 Bus2=node_535059761.3 Switch=Y r1=1e-4 x1=1e-4 r0=1e-4 x0=1e-4 normamps=9999
New Line.342287300 Phases=1 Bus1=node_536260465.3 Bus2=node_536260466.3 Switch=Y r1=1e-4 x1=1e-4 r0=1e-4 x0=1e-4 normamps=9999
New Line.343463101 Phases=1 Bus1=node_537537466.3 Bus2=node_537537467.3 Switch=Y r1=1e-4 x1=1e-4 r0=1e-4 x0=1e-4 normamps=9999
New Line.342605542 Phases=1 Bus1=node_536394929.2 Bus2=node_536394930.2 Switch=Y r1=1e-4 x1=1e-4 r0=1e-4 x0=1e-4 normamps=9999
New Line.342287270 Phases=1 Bus1=node_536260387.1 Bus2=node_536260388.1 Switch=Y r1=1e-4 x1=1e-4 r0=1e-4 x0=1e-4 normamps=9999
New Line.343463961 Phases=3 Bus1=node_537539709.1.2.3 Bus2=node_537539710.1.2.3 Switch=Y r1=1e-4 x1=1e-4 r0=1e-4 x0=1e-4 normamps=9999
New Line.342870264 Phases=1 Bus1=node_536914104.2 Bus2=node_536914105.2 Switch=Y r1=1e-4 x1=1e-4 r0=1e-4 x0=1e-4 normamps=9999
New Line.343681829 Phases=3 Bus1=node_537866263.1.2.3 Bus2=node_537866264.1.2.3 Switch=Y r1=1e-4 x1=1e-4 r0=1e-4 x0=1e-4 normamps=9999
New Line.397701776 Phases=1 Bus1=node_435897703.3 Bus2=node_2871263326.3 Switch=Y r1=1e-4 x1=1e-4 r0=1e-4 x0=1e-4 normamps=9999
New Line.422546846 Phases=1 Bus1=node_690488410.1 Bus2=node_690488411.1 Switch=Y r1=1e-4 x1=1e-4 r0=1e-4 x0=1e-4 normamps=9999
New Line.793780587 Phases=3 Bus1=100_729520606.1.2.3 Bus2=100_729520605.1.2.3 Switch=Y r1=1e-4 x1=1e-4 r0=1e-4 x0=1e-4 normamps=9999
New Line.343598095 Phases=3 Bus1=node_537623665.1.2.3 Bus2=node_537623664.1.2.3 Switch=Y r1=1e-4 x1=1e-4 r0=1e-4 x0=1e-4 normamps=9999
New Line.729520600 Phases=3 Bus1=100_729520606.1.2.3 Bus2=100_729520605.1.2.3 Switch=Y r1=1e-4 x1=1e-4 r0=1e-4 x0=1e-4 normamps=9999
New Line.497524532 Phases=1 Bus1=node_767780640.2 Bus2=node_767780641.2 Switch=Y r1=1e-4 x1=1e-4 r0=1e-4 x0=1e-4 normamps=9999
New Line.618666675 Phases=1 Bus1=node_886711051.2 Bus2=node_886711100.2 Switch=Y r1=1e-4 x1=1e-4 r0=1e-4 x0=1e-4 normamps=9999
New Line.424316362 Phases=1 Bus1=node_692434487.2 Bus2=node_692434488.2 Switch=Y r1=1e-4 x1=1e-4 r0=1e-4 x0=1e-4 normamps=9999
New Line.525268020 Phases=1 Bus1=node_795275004.3 Bus2=node_795275005.3 Switch=Y r1=1e-4 x1=1e-4 r0=1e-4 x0=1e-4 normamps=9999
New Line.508963805 Phases=1 Bus1=node_779091221.1 Bus2=node_779091222.1 Switch=Y r1=1e-4 x1=1e-4 r0=1e-4 x0=1e-4 normamps=9999
New Line.508821924 Phases=1 Bus1=node_778953349.3 Bus2=node_778953350.3 Switch=Y r1=1e-4 x1=1e-4 r0=1e-4 x0=1e-4 normamps=9999
New Line.493621107 Phases=1 Bus1=node_763881224.2 Bus2=node_763881225.2 Switch=Y r1=1e-4 x1=1e-4 r0=1e-4 x0=1e-4 normamps=9999
New Line.343820648 Phases=1 Bus1=node_538102753.3 Bus2=node_538102754.3 Switch=Y r1=1e-4 x1=1e-4 r0=1e-4 x0=1e-4 normamps=9999
New Line.494484258 Phases=1 Bus1=node_764753042.1 Bus2=node_764753043.1 Switch=Y r1=1e-4 x1=1e-4 r0=1e-4 x0=1e-4 normamps=9999
New Line.529926886 Phases=1 Bus1=node_799993807.3 Bus2=node_799993808.3 Switch=Y r1=1e-4 x1=1e-4 r0=1e-4 x0=1e-4 normamps=9999
New Line.523103768 Phases=1 Bus1=node_793106376.3 Bus2=node_793106377.3 Switch=Y r1=1e-4 x1=1e-4 r0=1e-4 x0=1e-4 normamps=9999
New Line.485381194 Phases=1 Bus1=node_755512909.2 Bus2=node_755512910.2 Switch=Y r1=1e-4 x1=1e-4 r0=1e-4 x0=1e-4 normamps=9999
New Line.506404453 Phases=1 Bus1=node_776565987.3 Bus2=node_776565988.3 Switch=Y r1=1e-4 x1=1e-4 r0=1e-4 x0=1e-4 normamps=9999
New Line.531550184 Phases=1 Bus1=node_801621669.3 Bus2=node_801621670.3 Switch=Y r1=1e-4 x1=1e-4 r0=1e-4 x0=1e-4 normamps=9999
New Line.514743326 Phases=1 Bus1=node_784887567.1 Bus2=node_784887568.1 Switch=Y r1=1e-4 x1=1e-4 r0=1e-4 x0=1e-4 normamps=9999
New Line.522880468 Phases=1 Bus1=node_792878738.2 Bus2=node_792878739.2 Switch=Y r1=1e-4 x1=1e-4 r0=1e-4 x0=1e-4 normamps=9999
New Line.508289512 Phases=1 Bus1=node_778420984.2 Bus2=node_778420985.2 Switch=Y r1=1e-4 x1=1e-4 r0=1e-4 x0=1e-4 normamps=9999
New Line.343370054 Phases=3 Bus1=node_537228360.1.2.3 Bus2=node_537228361.1.2.3 Switch=Y r1=1e-4 x1=1e-4 r0=1e-4 x0=1e-4 normamps=9999
New Line.457508743 Phases=1 Bus1=node_727125199.2 Bus2=node_727125200.2 Switch=Y r1=1e-4 x1=1e-4 r0=1e-4 x0=1e-4 normamps=9999
New Line.459685670 Phases=1 Bus1=node_729361879.3 Bus2=node_729361880.3 Switch=Y r1=1e-4 x1=1e-4 r0=1e-4 x0=1e-4 normamps=9999
New Line.1794990779 Phases=1 Bus1=100_1899755993.1 Bus2=100_1899755994.1 Switch=Y r1=1e-4 x1=1e-4 r0=1e-4 x0=1e-4 normamps=9999
New Line.2554376084 Phases=3 Bus1=100_2554376181.1.2.3 Bus2=100_2554376182.1.2.3 Switch=Y r1=1e-4 x1=1e-4 r0=1e-4 x0=1e-4 normamps=9999
New Line.2554376129 Phases=3 Bus1=100_2554376181.1.2.3 Bus2=segm_2554376107.1.2.3 Switch=Y r1=1e-4 x1=1e-4 r0=1e-4 x0=1e-4 normamps=9999
New Line.2590610507 Phases=1 Bus1=node_435897134.3 Bus2=node_2743672040.3 Switch=Y r1=1e-4 x1=1e-4 r0=1e-4 x0=1e-4 normamps=9999
New Line.1820771971 Phases=3 Bus1=100_2550495486.1.2.3 Bus2=segm_1820771961.1.2.3 Switch=Y r1=1e-4 x1=1e-4 r0=1e-4 x0=1e-4 normamps=9999
New Line.1820771993 Phases=3 Bus1=100_2550495486.1.2.3 Bus2=100_2550495487.1.2.3 Switch=Y r1=1e-4 x1=1e-4 r0=1e-4 x0=1e-4 normamps=9999
New Line.677644789 Phases=1 Bus1=node_950228011.1 Bus2=node_950228012.1 Switch=Y r1=1e-4 x1=1e-4 r0=1e-4 x0=1e-4 normamps=9999
New Line.576620130 Phases=1 Bus1=node_845025761.3 Bus2=node_845025762.3 Switch=Y r1=1e-4 x1=1e-4 r0=1e-4 x0=1e-4 normamps=9999
New Line.552526312 Phases=1 Bus1=node_821940769.3 Bus2=node_821940770.3 Switch=Y r1=1e-4 x1=1e-4 r0=1e-4 x0=1e-4 normamps=9999
New Line.342055066 Phases=3 Bus1=node_535914707.1.2.3 Bus2=node_535914708.1.2.3 Switch=Y r1=1e-4 x1=1e-4 r0=1e-4 x0=1e-4 normamps=9999
New Line.342054476 Phases=3 Bus1=node_535913565.1.2.3 Bus2=node_535913566.1.2.3 Switch=Y r1=1e-4 x1=1e-4 r0=1e-4 x0=1e-4 normamps=9999
New Line.341424236 Phases=1 Bus1=node_535062416.1 Bus2=node_535062417.1 Switch=Y r1=1e-4 x1=1e-4 r0=1e-4 x0=1e-4 normamps=9999
New Line.343372735 Phases=3 Bus1=node_537316362.1.2.3 Bus2=node_537316363.1.2.3 Switch=Y r1=1e-4 x1=1e-4 r0=1e-4 x0=1e-4 normamps=9999
New Line.341831494 Phases=1 Bus1=node_433339655.1 Bus2=node_2700922044.1 Switch=Y r1=1e-4 x1=1e-4 r0=1e-4 x0=1e-4 normamps=9999
New Line.343372724 Phases=3 Bus1=node_537316341.1.2.3 Bus2=node_537316342.1.2.3 Switch=Y r1=1e-4 x1=1e-4 r0=1e-4 x0=1e-4 normamps=9999
New Line.341423935 Phases=1 Bus1=node_535061624.2 Bus2=node_535061625.2 Switch=Y r1=1e-4 x1=1e-4 r0=1e-4 x0=1e-4 normamps=9999
New Line.343682022 Phases=1 Bus1=node_537922628.3 Bus2=node_537922629.3 Switch=Y r1=1e-4 x1=1e-4 r0=1e-4 x0=1e-4 normamps=9999
New Line.343372714 Phases=3 Bus1=node_537316323.1.2.3 Bus2=node_537316324.1.2.3 Switch=Y r1=1e-4 x1=1e-4 r0=1e-4 x0=1e-4 normamps=9999
New Line.351671703 Phases=3 Bus1=100_1415401297.1.2.3 Bus2=100_1415401298.1.2.3 Switch=Y r1=1e-4 x1=1e-4 r0=1e-4 x0=1e-4 normamps=9999
New Line.351671659 Phases=3 Bus1=100_351671649.1.2.3 Bus2=100_351671628.1.2.3 Switch=Y r1=1e-4 x1=1e-4 r0=1e-4 x0=1e-4 normamps=9999
New Line.342055703 Phases=1 Bus1=node_535915856.2 Bus2=node_535915857.2 Switch=Y r1=1e-4 x1=1e-4 r0=1e-4 x0=1e-4 normamps=9999
New Line.341828268 Phases=1 Bus1=node_535192310.1 Bus2=node_535192311.1 Switch=Y r1=1e-4 x1=1e-4 r0=1e-4 x0=1e-4 normamps=9999
New Line.340081359 Phases=1 Bus1=node_532949153.1 Bus2=node_532949154.1 Switch=Y r1=1e-4 x1=1e-4 r0=1e-4 x0=1e-4 normamps=9999
New Line.351671555 Phases=3 Bus1=100_351671524.1.2.3 Bus2=100_351671545.1.2.3 Switch=Y r1=1e-4 x1=1e-4 r0=1e-4 x0=1e-4 normamps=9999
New Line.342606034 Phases=1 Bus1=node_536396033.1 Bus2=node_536396034.1 Switch=Y r1=1e-4 x1=1e-4 r0=1e-4 x0=1e-4 normamps=9999
New Line.343681535 Phases=1 Bus1=node_537865437.2 Bus2=node_537865438.2 Switch=Y r1=1e-4 x1=1e-4 r0=1e-4 x0=1e-4 normamps=9999
New Line.343373953 Phases=3 Bus1=node_537391561.1.2.3 Bus2=node_537391562.1.2.3 Switch=Y r1=1e-4 x1=1e-4 r0=1e-4 x0=1e-4 normamps=9999
New Line.343371365 Phases=1 Bus1=node_537313278.1 Bus2=node_537313279.1 Switch=Y r1=1e-4 x1=1e-4 r0=1e-4 x0=1e-4 normamps=9999
New Line.343463971 Phases=1 Bus1=node_537539727.3 Bus2=node_537539728.3 Switch=Y r1=1e-4 x1=1e-4 r0=1e-4 x0=1e-4 normamps=9999
New Line.343163812 Phases=3 Bus1=node_537024969.1.2.3 Bus2=node_537024970.1.2.3 Switch=Y r1=1e-4 x1=1e-4 r0=1e-4 x0=1e-4 normamps=9999
New Line.342053970 Phases=1 Bus1=node_535727503.1 Bus2=node_535727504.1 Switch=Y r1=1e-4 x1=1e-4 r0=1e-4 x0=1e-4 normamps=9999
New Line.343682637 Phases=3 Bus1=node_2196462643.1.2.3 Bus2=node_2196462644.1.2.3 Switch=Y r1=1e-4 x1=1e-4 r0=1e-4 x0=1e-4 normamps=9999
New Line.343682211 Phases=3 Bus1=node_537923063.1.2.3 Bus2=node_537923064.1.2.3 Switch=Y r1=1e-4 x1=1e-4 r0=1e-4 x0=1e-4 normamps=9999
New Line.340082241 Phases=3 Bus1=node_534660279.1.2.3 Bus2=node_534660280.1.2.3 Switch=Y r1=1e-4 x1=1e-4 r0=1e-4 x0=1e-4 normamps=9999
New Line.341424071 Phases=1 Bus1=node_535062008.3 Bus2=node_535062009.3 Switch=Y r1=1e-4 x1=1e-4 r0=1e-4 x0=1e-4 normamps=9999
New Line.343682647 Phases=3 Bus1=node_1603204207.1.2.3 Bus2=node_1603204224.1.2.3 Switch=Y r1=1e-4 x1=1e-4 r0=1e-4 x0=1e-4 normamps=9999
New Line.342606231 Phases=1 Bus1=node_536396558.1 Bus2=node_536396559.1 Switch=Y r1=1e-4 x1=1e-4 r0=1e-4 x0=1e-4 normamps=9999
New Line.343463977 Phases=1 Bus1=node_537539745.1 Bus2=node_537539746.1 Switch=Y r1=1e-4 x1=1e-4 r0=1e-4 x0=1e-4 normamps=9999
New Line.340082231 Phases=3 Bus1=node_534660261.1.2.3 Bus2=node_534660262.1.2.3 Switch=Y r1=1e-4 x1=1e-4 r0=1e-4 x0=1e-4 normamps=9999
New Line.343372053 Phases=1 Bus1=node_537315098.3 Bus2=node_537315099.3 Switch=Y r1=1e-4 x1=1e-4 r0=1e-4 x0=1e-4 normamps=9999
New Line.343371487 Phases=1 Bus1=node_537313596.3 Bus2=node_537313597.3 Switch=Y r1=1e-4 x1=1e-4 r0=1e-4 x0=1e-4 normamps=9999
New Line.382166175 Phases=1 Bus1=node_608602127.1 Bus2=node_608602128.1 Switch=Y r1=1e-4 x1=1e-4 r0=1e-4 x0=1e-4 normamps=9999
New Line.342606225 Phases=1 Bus1=node_536396540.1 Bus2=node_536396541.1 Switch=Y r1=1e-4 x1=1e-4 r0=1e-4 x0=1e-4 normamps=9999
New Line.343681659 Phases=1 Bus1=node_537865777.1 Bus2=node_537865778.1 Switch=Y r1=1e-4 x1=1e-4 r0=1e-4 x0=1e-4 normamps=9999
New Line.343163844 Phases=3 Bus1=node_537025023.1.2.3 Bus2=node_537025024.1.2.3 Switch=Y r1=1e-4 x1=1e-4 r0=1e-4 x0=1e-4 normamps=9999
New Line.343372289 Phases=3 Bus1=node_537315556.1.2.3 Bus2=node_537315557.1.2.3 Switch=Y r1=1e-4 x1=1e-4 r0=1e-4 x0=1e-4 normamps=9999
New Line.341829200 Phases=3 Bus1=node_535194196.1.2.3 Bus2=node_535194197.1.2.3 Switch=Y r1=1e-4 x1=1e-4 r0=1e-4 x0=1e-4 normamps=9999
New Line.343463948 Phases=1 Bus1=node_537539670.3 Bus2=node_537539671.3 Switch=Y r1=1e-4 x1=1e-4 r0=1e-4 x0=1e-4 normamps=9999
New Line.343682617 Phases=3 Bus1=node_537923811.1.2.3 Bus2=node_537923812.1.2.3 Switch=Y r1=1e-4 x1=1e-4 r0=1e-4 x0=1e-4 normamps=9999
New Line.343682028 Phases=1 Bus1=node_537922646.3 Bus2=node_537922647.3 Switch=Y r1=1e-4 x1=1e-4 r0=1e-4 x0=1e-4 normamps=9999
New Line.342870738 Phases=1 Bus1=node_536915199.1 Bus2=node_536915200.1 Switch=Y r1=1e-4 x1=1e-4 r0=1e-4 x0=1e-4 normamps=9999
New Line.343371378 Phases=1 Bus1=node_537313317.1 Bus2=node_537313318.1 Switch=Y r1=1e-4 x1=1e-4 r0=1e-4 x0=1e-4 normamps=9999
New Line.343681653 Phases=1 Bus1=node_537865759.1 Bus2=node_537865760.1 Switch=Y r1=1e-4 x1=1e-4 r0=1e-4 x0=1e-4 normamps=9999
New Line.340082511 Phases=1 Bus1=node_534660802.1 Bus2=node_534660801.1 Switch=Y r1=1e-4 x1=1e-4 r0=1e-4 x0=1e-4 normamps=9999
New Line.342287209 Phases=1 Bus1=node_536260228.1 Bus2=node_536260229.1 Switch=Y r1=1e-4 x1=1e-4 r0=1e-4 x0=1e-4 normamps=9999
New Line.340081310 Phases=1 Bus1=node_532949036.3 Bus2=node_532949037.3 Switch=Y r1=1e-4 x1=1e-4 r0=1e-4 x0=1e-4 normamps=9999
New Line.341829135 Phases=1 Bus1=node_535194067.3 Bus2=node_535194068.3 Switch=Y r1=1e-4 x1=1e-4 r0=1e-4 x0=1e-4 normamps=9999
New Line.342607421 Phases=1 Bus1=node_536519581.3 Bus2=node_536519582.3 Switch=Y r1=1e-4 x1=1e-4 r0=1e-4 x0=1e-4 normamps=9999
New Line.341424013 Phases=3 Bus1=node_535061858.1.2.3 Bus2=node_535061859.1.2.3 Switch=Y r1=1e-4 x1=1e-4 r0=1e-4 x0=1e-4 normamps=9999
New Line.348523789 Phases=1 Bus1=node_2534315477.1 Bus2=node_2534315478.1 Switch=Y r1=1e-4 x1=1e-4 r0=1e-4 x0=1e-4 normamps=9999
New Line.341829210 Phases=3 Bus1=node_535194214.1.2.3 Bus2=node_535194215.1.2.3 Switch=Y r1=1e-4 x1=1e-4 r0=1e-4 x0=1e-4 normamps=9999
New Line.340081855 Phases=1 Bus1=node_534659539.3 Bus2=node_534659540.3 Switch=Y r1=1e-4 x1=1e-4 r0=1e-4 x0=1e-4 normamps=9999
New Line.340081483 Phases=1 Bus1=node_532949489.1 Bus2=node_532949490.1 Switch=Y r1=1e-4 x1=1e-4 r0=1e-4 x0=1e-4 normamps=9999
New Line.343373900 Phases=3 Bus1=node_537391447.1.2.3 Bus2=node_537391448.1.2.3 Switch=Y r1=1e-4 x1=1e-4 r0=1e-4 x0=1e-4 normamps=9999
New Line.341829230 Phases=3 Bus1=node_535194250.1.2.3 Bus2=node_535194251.1.2.3 Switch=Y r1=1e-4 x1=1e-4 r0=1e-4 x0=1e-4 normamps=9999
New Line.342054499 Phases=3 Bus1=node_535913623.1.2.3 Bus2=node_535913622.1.2.3 Switch=Y r1=1e-4 x1=1e-4 r0=1e-4 x0=1e-4 normamps=9999
New Line.342605841 Phases=1 Bus1=node_536395730.2 Bus2=node_536395731.2 Switch=Y r1=1e-4 x1=1e-4 r0=1e-4 x0=1e-4 normamps=9999
New Line.340080915 Phases=1 Bus1=node_532948166.1 Bus2=node_532948167.1 Switch=Y r1=1e-4 x1=1e-4 r0=1e-4 x0=1e-4 normamps=9999
New Line.347718855 Phases=1 Bus1=node_542898820.1 Bus2=node_542898821.1 Switch=Y r1=1e-4 x1=1e-4 r0=1e-4 x0=1e-4 normamps=9999
New Line.348927369 Phases=1 Bus1=node_545894543.1 Bus2=node_545894544.1 Switch=Y r1=1e-4 x1=1e-4 r0=1e-4 x0=1e-4 normamps=9999
New Line.342607905 Phases=3 Bus1=node_536520445.1.2.3 Bus2=node_536520446.1.2.3 Switch=Y r1=1e-4 x1=1e-4 r0=1e-4 x0=1e-4 normamps=9999
New Line.342054026 Phases=3 Bus1=node_535727661.1.2.3 Bus2=node_535727662.1.2.3 Switch=Y r1=1e-4 x1=1e-4 r0=1e-4 x0=1e-4 normamps=9999
New Line.347718868 Phases=1 Bus1=node_542898859.2 Bus2=node_542898860.2 Switch=Y r1=1e-4 x1=1e-4 r0=1e-4 x0=1e-4 normamps=9999
New Line.348403212 Phases=1 Bus1=node_544542754.2 Bus2=node_544542755.2 Switch=Y r1=1e-4 x1=1e-4 r0=1e-4 x0=1e-4 normamps=9999
New Line.347718792 Phases=1 Bus1=node_542898631.1 Bus2=node_542898632.1 Switch=Y r1=1e-4 x1=1e-4 r0=1e-4 x0=1e-4 normamps=9999
New Line.348221274 Phases=1 Bus1=node_544161976.2 Bus2=node_544161977.2 Switch=Y r1=1e-4 x1=1e-4 r0=1e-4 x0=1e-4 normamps=9999
New Line.341829220 Phases=3 Bus1=node_535194232.1.2.3 Bus2=node_535194233.1.2.3 Switch=Y r1=1e-4 x1=1e-4 r0=1e-4 x0=1e-4 normamps=9999
New Line.340082352 Phases=3 Bus1=node_534660499.1.2.3 Bus2=node_534660498.1.2.3 Switch=Y r1=1e-4 x1=1e-4 r0=1e-4 x0=1e-4 normamps=9999
New Line.342870728 Phases=3 Bus1=node_536915181.1.2.3 Bus2=node_536915182.1.2.3 Switch=Y r1=1e-4 x1=1e-4 r0=1e-4 x0=1e-4 normamps=9999
New Line.341832341 Phases=1 Bus1=node_535548761.1 Bus2=node_535548762.1 Switch=Y r1=1e-4 x1=1e-4 r0=1e-4 x0=1e-4 normamps=9999
New Line.340081526 Phases=1 Bus1=node_532949618.3 Bus2=node_532949619.3 Switch=Y r1=1e-4 x1=1e-4 r0=1e-4 x0=1e-4 normamps=9999
New Line.343597332 Phases=1 Bus1=node_537621979.1 Bus2=node_537621980.1 Switch=Y r1=1e-4 x1=1e-4 r0=1e-4 x0=1e-4 normamps=9999
New Line.341424389 Phases=1 Bus1=node_535191631.1 Bus2=node_535191632.1 Switch=Y r1=1e-4 x1=1e-4 r0=1e-4 x0=1e-4 normamps=9999
New Line.340081558 Phases=1 Bus1=node_532949714.2 Bus2=node_532949715.2 Switch=Y r1=1e-4 x1=1e-4 r0=1e-4 x0=1e-4 normamps=9999
New Line.342606521 Phases=1 Bus1=node_536397362.2 Bus2=node_536397363.2 Switch=Y r1=1e-4 x1=1e-4 r0=1e-4 x0=1e-4 normamps=9999
New Line.342870920 Phases=1 Bus1=node_536915675.3 Bus2=node_536915676.3 Switch=Y r1=1e-4 x1=1e-4 r0=1e-4 x0=1e-4 normamps=9999
New Line.342870926 Phases=1 Bus1=node_536915693.1 Bus2=node_536915694.1 Switch=Y r1=1e-4 x1=1e-4 r0=1e-4 x0=1e-4 normamps=9999
New Line.343597339 Phases=1 Bus1=node_537622001.1 Bus2=node_537622000.1 Switch=Y r1=1e-4 x1=1e-4 r0=1e-4 x0=1e-4 normamps=9999
New Line.343597346 Phases=1 Bus1=node_537622021.3 Bus2=node_537622022.3 Switch=Y r1=1e-4 x1=1e-4 r0=1e-4 x0=1e-4 normamps=9999
New Line.343597352 Phases=1 Bus1=node_537622039.1 Bus2=node_537622040.1 Switch=Y r1=1e-4 x1=1e-4 r0=1e-4 x0=1e-4 normamps=9999
New Line.342870933 Phases=1 Bus1=node_536915714.1 Bus2=node_536915715.1 Switch=Y r1=1e-4 x1=1e-4 r0=1e-4 x0=1e-4 normamps=9999
New Line.342606527 Phases=1 Bus1=node_536397380.2 Bus2=node_536397381.2 Switch=Y r1=1e-4 x1=1e-4 r0=1e-4 x0=1e-4 normamps=9999
New Line.343597358 Phases=1 Bus1=node_537622058.3 Bus2=node_537622057.3 Switch=Y r1=1e-4 x1=1e-4 r0=1e-4 x0=1e-4 normamps=9999
New Line.342054222 Phases=1 Bus1=node_535912855.2 Bus2=node_535912856.2 Switch=Y r1=1e-4 x1=1e-4 r0=1e-4 x0=1e-4 normamps=9999
New Line.342054228 Phases=1 Bus1=node_535912873.2 Bus2=node_535912874.2 Switch=Y r1=1e-4 x1=1e-4 r0=1e-4 x0=1e-4 normamps=9999
New Line.342606545 Phases=1 Bus1=node_536397416.2 Bus2=node_536397417.2 Switch=Y r1=1e-4 x1=1e-4 r0=1e-4 x0=1e-4 normamps=9999
New Line.340081545 Phases=1 Bus1=node_532949675.2 Bus2=node_532949676.2 Switch=Y r1=1e-4 x1=1e-4 r0=1e-4 x0=1e-4 normamps=9999
New Line.343371646 Phases=1 Bus1=node_537314049.2 Bus2=node_537314050.2 Switch=Y r1=1e-4 x1=1e-4 r0=1e-4 x0=1e-4 normamps=9999
New Line.342606496 Phases=1 Bus1=node_536397305.2 Bus2=node_536397306.2 Switch=Y r1=1e-4 x1=1e-4 r0=1e-4 x0=1e-4 normamps=9999
New Line.342870888 Phases=1 Bus1=node_536915579.3 Bus2=node_536915580.3 Switch=Y r1=1e-4 x1=1e-4 r0=1e-4 x0=1e-4 normamps=9999
New Line.342870881 Phases=1 Bus1=node_536915558.3 Bus2=node_536915559.3 Switch=Y r1=1e-4 x1=1e-4 r0=1e-4 x0=1e-4 normamps=9999
New Line.341424319 Phases=1 Bus1=node_535191473.3 Bus2=node_535191474.3 Switch=Y r1=1e-4 x1=1e-4 r0=1e-4 x0=1e-4 normamps=9999
New Line.340081507 Phases=1 Bus1=node_532949561.3 Bus2=node_532949562.3 Switch=Y r1=1e-4 x1=1e-4 r0=1e-4 x0=1e-4 normamps=9999
New Line.342285750 Phases=1 Bus1=node_536256335.3 Bus2=node_536256336.3 Switch=Y r1=1e-4 x1=1e-4 r0=1e-4 x0=1e-4 normamps=9999
New Line.343371597 Phases=1 Bus1=node_537313914.3 Bus2=node_537313915.3 Switch=Y r1=1e-4 x1=1e-4 r0=1e-4 x0=1e-4 normamps=9999
New Line.343681789 Phases=1 Bus1=node_537866155.3 Bus2=node_537866156.3 Switch=Y r1=1e-4 x1=1e-4 r0=1e-4 x0=1e-4 normamps=9999
New Line.342606477 Phases=1 Bus1=node_536397248.3 Bus2=node_536397249.3 Switch=Y r1=1e-4 x1=1e-4 r0=1e-4 x0=1e-4 normamps=9999
...
